@<TRIPOS>MOLECULE
8DCR_ligand
46   47    1
SMALL
USER_CHARGES


@<TRIPOS>ATOM
      1 O3        123.5620  128.5230  176.1670 O.3       1 Y00         0.0000 
      2 C16       124.8200  129.0090  176.3290 C.ar      1 Y00         0.0000 
      3 C15       125.6410  129.1610  175.2170 C.ar      1 Y00         0.0000 
      4 C14       126.9410  129.6100  175.3960 C.ar      1 Y00         0.0000 
      5 C17       125.2640  129.3320  177.6060 C.ar      1 Y00         0.0000 
      6 C18       126.5700  129.7690  177.7860 C.ar      1 Y00         0.0000 
      7 C13       127.4150  129.8840  176.6840 C.ar      1 Y00         0.0000 
      8 C12       128.8660  130.2720  176.8900 C.3       1 Y00         0.0000 
      9 C11       129.8270  129.1940  176.3470 C.3       1 Y00         0.0000 
     10 C9        131.2710  129.6620  176.1660 C.3       1 Y00         0.0000 
     11 C10       132.2020  128.4980  175.7740 C.3       1 Y00         0.0000 
     12 N1        131.3090  130.7600  175.0840 N.4       1 Y00         0.0000 
     13 C8        132.5160  131.7060  175.1810 C.3       1 Y00         0.0000 
     14 C1        132.5720  132.6360  173.9490 C.3       1 Y00         0.0000 
     15 C2        133.9550  133.2480  173.7550 C.ar      1 Y00         0.0000 
     16 C7        134.6330  133.7980  174.8460 C.ar      1 Y00         0.0000 
     17 C6        135.9190  134.3140  174.7010 C.ar      1 Y00         0.0000 
     18 O1        136.5750  134.7900  175.8070 O.3       1 Y00         0.0000 
     19 C5        136.5230  134.3250  173.4400 C.ar      1 Y00         0.0000 
     20 O2        137.7740  134.8620  173.2780 O.3       1 Y00         0.0000 
     21 C4        135.8460  133.7920  172.3400 C.ar      1 Y00         0.0000 
     22 C3        134.5700  133.2470  172.4990 C.ar      1 Y00         0.0000 
     23 HO3       123.1050  128.3850  176.9990 H         1 Y00         0.0000 
     24 HC15      125.2790  128.9210  174.2270 H         1 Y00         0.0000 
     25 HC14      127.5840  129.7170  174.5360 H         1 Y00         0.0000 
     26 HC17      124.6130  129.2210  178.4620 H         1 Y00         0.0000 
     27 HC18      126.9260  129.9880  178.7830 H         1 Y00         0.0000 
     28 H121      129.0750  130.4340  177.9490 H         1 Y00         0.0000 
     29 H122      129.0220  131.2400  176.4220 H         1 Y00         0.0000 
     30 H111      129.4770  128.7970  175.3920 H         1 Y00         0.0000 
     31 H112      129.8130  128.3550  177.0440 H         1 Y00         0.0000 
     32 HC9       131.6070  130.1550  177.0740 H         1 Y00         0.0000 
     33 H101      133.2300  128.8200  175.6090 H         1 Y00         0.0000 
     34 H102      132.2280  127.7490  176.5670 H         1 Y00         0.0000 
     35 H103      131.8610  127.9910  174.8710 H         1 Y00         0.0000 
     36 H1_1      130.4590  131.3070  175.1310 H         1 Y00         0.0000 
     37 H1_2      131.3320  130.3070  174.1800 H         1 Y00         0.0000 
     38 H8_1      133.3870  131.0530  175.2340 H         1 Y00         0.0000 
     39 H8_2      132.3930  132.2450  176.1200 H         1 Y00         0.0000 
     40 H1_1      131.8410  133.4310  174.0530 H         1 Y00         0.0000 
     41 H1_2      132.2890  132.1140  173.0350 H         1 Y00         0.0000 
     42 HC7       134.1670  133.8160  175.8180 H         1 Y00         0.0000 
     43 HO1       137.5080  134.9630  175.6370 H         1 Y00         0.0000 
     44 HO2       138.1040  134.8420  172.3740 H         1 Y00         0.0000 
     45 HC4       136.3100  133.7890  171.3640 H         1 Y00         0.0000 
     46 HC3       134.0660  132.8170  171.6460 H         1 Y00         0.0000 
@<TRIPOS>BOND
     1    1    2 1    
     2    1   23 1    
     3    2    3 ar   
     4    2    5 ar   
     5    3    4 ar   
     6    3   24 1    
     7    4    7 ar   
     8    4   25 1    
     9    5    6 ar   
    10    5   26 1    
    11    6    7 ar   
    12    6   27 1    
    13    7    8 1    
    14    8    9 1    
    15    8   28 1    
    16    8   29 1    
    17    9   10 1    
    18    9   30 1    
    19    9   31 1    
    20   10   11 1    
    21   10   12 1    
    22   10   32 1    
    23   11   33 1    
    24   11   34 1    
    25   11   35 1    
    26   12   13 1    
    27   12   36 1    
    28   12   37 1    
    29   13   14 1    
    30   13   38 1    
    31   13   39 1    
    32   14   15 1    
    33   14   40 1    
    34   14   41 1    
    35   15   16 ar   
    36   15   22 ar   
    37   16   17 ar   
    38   16   42 1    
    39   17   18 1    
    40   17   19 ar   
    41   18   43 1    
    42   19   20 1    
    43   19   21 ar   
    44   20   44 1    
    45   21   22 ar   
    46   21   45 1    
    47   22   46 1    
@<TRIPOS>SUBSTRUCTURE
     1 Y00         1 GROUP             0 R     ****    0 ROOT    
